* PSpice Model Editor - Version 17.2.0
*$
*BeginSpec
*IF: (1,0) (2,0) (2.7000,1.0000E-3) (3,10.000E-3) (3.2000,20.000E-3) (3.4000,30.000E-3) (3.5000,40.000E-3) (3.6000,50.000E-3) (3.7000,60.000E-3)
*IF: (3.8000,70.000E-3) (3.9000,80.000E-3) (4,90.000E-3) (4.1000,.1)
*JC:
*RL:
*RB: Vz=0 Iz=0 Zz=0
*RR: Trr=0 Ifwd=10.000E-3 Irev=10.000E-3 Rl=100
*EndSpec
*BeginTrace
*IF: 1,0,.4,4.1000,1,3,0,0,-1 (27)
*JC: 0,1,.1,10,1,3,0,0,-1 (27)
*RL: 0,0,1,100,1,3,0,0,-1 (27)
*RB: 0,1,100.00E-6,1,1,3,0,0,-1 (27)
*RR: 0,0,-5.0000E-9,20.000E-9,1,3,0,0,-1 (27)
*EndTrace
*BeginParam
*IS=1.0708E-12 (10.000E-21,.1,0)
*N=4.9950 (.2,5,0)
*RS=8.3867 (1.0000E-6,100,0)
*EndParam
*DEVICE=BLUE_LED,D
* BLUE_LED D model
* created using Model Editor release 17.2.0 on 05/17/23 at 21:14
* The Model Editor is a PSpice product.
.MODEL BLUE_LED D
*$
